
***Library file consisting only the library cell instances in the /pnr/op_data/b01_final_new.dspf file

***Library cell instances: 
***Total number of cell instances: 16
**HS65_GS_BFX284
**HS65_GS_DFPQX4
**HS65_GS_DFPQX9
**HS65_GS_NAND2X7
**HS65_GS_NOR4ABX2
**HS65_GS_NOR2X6
**HS65_GS_AOI22X6
**HS65_GS_AOI32X5
**HS65_GS_CBI4I6X5
**HS65_GS_OAI21X3
**HS65_GS_CB4I6X9
**HS65_GSS_XOR2X6
**HS65_GS_NOR2AX3
**HS65_GS_MUX21X4
**HS65_GS_AOI12X2
**HS65_GS_IVX9


.SUBCKT HS65_GSS_XOR2X6 Z B A gnd gnd vdd vdd
*modified
*COMMENT Extracted with DK_cmos065lpgp_RF_7m4x0y2z_2V51V8@5.0.2@20070413.0 at 11:59 14 May 2007
Xld_D0 gnd vdd DNWPS AREA=3.212 PJ=7.32
MMMN0 Z:F26 net60:F27 gnd gnd NSVTGP AD=0.0678255p AS=0.0820989p L=0.06u NRD=0.285714 NRS=0.261905 PD=0.254681u PS=0.742737u W=0.63u lpe=3 ngcon=1 po2act=0.295877 sca=3.79615 scb=0.00291824 scc=5.79832e-05
MMMN1 net60:F18 B:F19 gnd gnd NSVTGP AD=0.032p AS=0.0528p L=0.06u NRD=0.34375 NRS=0.34375 PD=0.2u PS=0.65u W=0.32u lpe=3 ngcon=1 po2act=0.260348 sca=12.7654 scb=0.014473 scc=0.00123392
MMMN2 net72:F36 A:F35 gnd gnd NSVTGP L=0.06u W=0.78u ad=0.0585p as=0.1482p lpe=3 ngcon=1 nrd=0.0961538 nrs=0.358974 pd=0.15u po2act=0.288029 ps=1.16u sca=6.99142 scb=0.00671895 scc=0.000548722
MMMN3 Z:F32 B:F31 net72:F30 gnd NSVTGP L=0.06u W=0.78u ad=0.0839745p as=0.0585p lpe=3 ngcon=1 nrd=0.307692 nrs=0.0961538 pd=0.315319u po2act=0.357315 ps=0.15u sca=6.99117 scb=0.00671895 scc=0.000548722
MMMN4 net60:F24 A:F23 gnd gnd NSVTGP L=0.06u W=0.32u ad=0.032p as=0.0417011p lpe=3 ngcon=1 nrd=0.34375 nrs=0.407237 pd=0.2u po2act=0.311209 ps=0.377263u sca=12.765 scb=0.014473 scc=0.00123392
MMMP0 Z:F50 B:F51 net54:F52 vdd PSVTGP AD=0.11p AS=0.11p L=0.06u NRD=0.25 NRS=0.25 PD=0.2u PS=0.2u W=1.1u lpe=3 ngcon=1 po2act=0.503896 sca=5.22195 scb=0.00477169 scc=0.000389094
MMMP1 net54:F46 net60:F47 vdd vdd PSVTGP AD=0.11p AS=0.1219p L=0.06u NRD=0.25 NRS=0.272727 PD=0.2u PS=0.693333u W=1.1u lpe=3 ngcon=1 po2act=0.358612 sca=5.22185 scb=0.00477169 scc=0.000389094
MMMP2 Z:F56 A:F55 net54:F54 vdd PSVTGP L=0.06u W=1.1u ad=0.11p as=0.2145p lpe=3 ngcon=1 nrd=0.25 nrs=0.272727 pd=0.2u po2act=0.317336 ps=1.49u sca=5.22243 scb=0.00477169 scc=0.000389094
MMMP3 net60:F40 B:F39 net42:F38 vdd PSVTGP L=0.06u W=0.55u ad=0.099p as=0.045375p lpe=3 ngcon=1 nrd=0.3 nrs=0.15 pd=0.91u po2act=0.312353 ps=0.165u sca=5.35408 scb=0.00535557 scc=0.000199694
MMMP4 net42:F44 A:F43 vdd vdd PSVTGP L=0.06u W=0.55u ad=0.045375p as=0.06095p lpe=3 ngcon=1 nrd=0.15 nrs=0.201488 pd=0.165u po2act=0.568787 ps=0.346667u sca=5.35356 scb=0.00535557 scc=0.000199694
R1 gnd gnd 0.001
R10 Z:F50 Z:F5 38.5454
R11 Z:F5 Z:F26 38.2464
R12 Z:F26 Z:F32 0.001
R13 net54:F46 net54:F54 75.6297
R14 net54:F46 net54:F52 0.001
R15 B B:F4 0.001
R16 B:F51 B:F31 72.8046
R17 B:F51 B:F4 83.525
R18 B:F39 B:F19 110.552
R19 B:F39 B:F4 73.867
R2 gnd gnd 37.794
R20 B:F4 B:F31 133.242
R21 B:F4 B:F19 193.519
R22 net60:F47 net60:F40 256.621
R23 net60:F47 net60:F27 127.682
R24 net60:F47 net60:F18 248.978
R25 net60:F40 net60:F27 427.482
R26 net60:F40 net60:F18 100.946
R27 net60:F27 net60:F18 414.751
R28 net60:F18 net60:F24 0.001
R29 vdd vdd 0.001
R3 gnd gnd 37.9928
R30 vdd vdd 0.001
R31 vdd vdd 0.001
R32 vdd vdd 0.001
R33 vdd vdd 0.001
R34 vdd vdd 0.001
R35 vdd vdd 37.6272
R36 vdd vdd 0.001
R37 vdd vdd 37.623
R38 vdd vdd 0.001
R39 A A:F3 0.001
R4 gnd gnd 37.7205
R40 A:F3 A:F55 95.8674
R41 A:F3 A:F35 105.753
R42 A:F3 A:F23 61.2066
R43 A:F55 A:F35 68.2517
R44 A:F43 A:F23 98.7499
R45 gnd gnd 0.001
R46 gnd gnd 0.0256454
R47 gnd gnd 37.6237
R48 gnd gnd 0.001
R49 gnd gnd 0.001
R5 gnd gnd 0.001
R50 gnd gnd 0.001
R51 gnd gnd 0.001
R6 net42:F38 net42:F44 0.001
R7 net72:F30 net72:F36 0.001
R8 Z Z:F5 0.001
R9 Z:F50 Z:F56 0.001
.ENDS HS65_GSS_XOR2X6


.SUBCKT HS65_GS_AOI12X2 Z C B A gnd gnd vdd vdd
*COMMENT Extracted with DK_cmos065lpgp_RF_7m4x0y2z_2V51V8@5.0.2@20070413.0 at 12:37 14 May 2007
Xld_D0 gnd vdd DNWPS AREA=2.336 PJ=6.12
MMM43 Z:F31 B:F30 net036:F29 vdd PSVTGP L=0.06u W=0.31u ad=0.0867875p as=0.0562954p lpe=3 ngcon=1 nrd=4.63266 nrs=0.5858 pd=1.105u po2act=0.183784 ps=0.588041u sca=13.4931 scb=0.0152609 scc=0.00137372
MMM47 net036:F39 C:F38 vdd vdd PSVTGP L=0.06u W=0.35u ad=0.0635593p as=0.06125p lpe=3 ngcon=1 nrd=0.518851 nrs=0.314286 pd=0.663918u po2act=0.240634 ps=0.7u sca=1.21937 scb=3.09432e-05 scc=1.70794e-09
MMM52 Z:F35 A:F34 net036:F33 vdd PSVTGP L=0.06u W=0.31u ad=0.0867875p as=0.0562954p lpe=3 ngcon=1 nrd=2.32711 nrs=0.5858 pd=1.105u po2act=0.246559 ps=0.588041u sca=1.18857 scb=2.39069e-05 scc=9.01275e-10
MMM77 Z:F27 C:F26 gnd gnd NSVTGP L=0.06u W=0.205u ad=0.0216714p as=0.03485p lpe=3 ngcon=1 nrd=0.292683 nrs=0.268293 pd=0.205u po2act=0.268642 ps=0.545u sca=3.3841 scb=0.00192275 scc=8.55396e-06
MMM78 Z:F21 B:F22 net0134:F23 gnd NSVTGP AD=0.0264286p AS=0.018125p L=0.06u NRD=0.22 NRS=0.29 PD=0.25u PS=0.145u W=0.25u lpe=3 ngcon=1 po2act=0.339844 sca=3.20484 scb=0.00168506 scc=7.10806e-06
MMM79 net0134:F17 A:F18 gnd gnd NSVTGP AD=0.018125p AS=0.0425p L=0.06u NRD=0.29 NRS=0.22 PD=0.145u PS=0.59u W=0.25u lpe=3 ngcon=1 po2act=0.259976 sca=3.20494 scb=0.00168506 scc=7.10806e-06
R1 net0134:F17 net0134:F23 0.001
R10 net036:F33 net036:F29 0.001
R11 C C:F5 0.001
R12 C:F38 C:F26 1482.45
R13 C:F38 C:F5 200.161
R14 C:F5 C:F26 102.975
R15 A A:F3 0.001
R16 A:F34 A:F18 873.42
R17 A:F34 A:F3 1251.16
R18 A:F3 A:F18 66.4779
R19 Z Z:F6 0.001
R2 gnd gnd 0.001
R20 Z:F35 Z:F31 0.001
R21 Z:F35 Z:F6 38.9465
R22 Z:F6 Z:F21 38.3305
R23 Z:F21 Z:F27 0.001
R24 vdd vdd 0.001
R25 vdd vdd 0.001
R26 vdd vdd 0.001
R27 vdd vdd 0.001
R28 vdd vdd 37.6252
R29 vdd vdd 0.001
R3 gnd gnd 37.9283
R30 vdd vdd 37.685
R31 gnd gnd 0.001
R32 gnd gnd 0.0256454
R33 gnd gnd 37.6237
R34 gnd gnd 0.001
R35 gnd gnd 0.001
R4 gnd gnd 37.6765
R5 B B:F4 0.001
R6 B:F4 B:F30 73.5194
R7 B:F4 B:F22 285.562
R8 B:F30 B:F22 199.408
R9 net036:F33 net036:F39 0.001
.ENDS HS65_GS_AOI12X2


.SUBCKT HS65_GS_AOI12X23 Z C B A gnd gnd vdd vdd
*COMMENT Extracted with DK_cmos065lpgp_RF_7m4x0y2z_2V51V8@5.0.2@20070413.0 at 12:37 14 May 2007
Xld_D0 gnd vdd DNWPS AREA=5.84 PJ=10.92
MMM31 net0134:F47 A:F46 gnd gnd NSVTGP L=0.06u W=0.78u ad=0.078p as=0.0804894p lpe=3 ngcon=1 nrd=0.282051 nrs=0.282051 pd=0.2u po2act=0.754548 ps=0.304255u sca=6.98478 scb=0.00671895 scc=0.000548722
MMM32 Z:F95 A:F94 net0116:F93 vdd PSVTGP L=0.06u W=1.1u ad=0.11p as=0.11p lpe=3 ngcon=1 nrd=0.25 nrs=0.25 pd=0.2u po2act=1.50184 ps=0.2u sca=5.21258 scb=0.00477169 scc=0.000389094
MMM35 Z:F71 A:F70 net0116:F69 vdd PSVTGP L=0.06u W=1.1u ad=0.11p as=0.11p lpe=3 ngcon=1 nrd=0.25 nrs=0.25 pd=0.2u po2act=0.739912 ps=0.2u sca=5.21474 scb=0.00477169 scc=0.000389094
MMM39 Z:F79 B:F78 net0116:F77 vdd PSVTGP L=0.06u W=1.1u ad=0.11p as=0.11p lpe=3 ngcon=1 nrd=0.25 nrs=0.25 pd=0.2u po2act=1.33253 ps=0.2u sca=5.21304 scb=0.00477169 scc=0.000389094
MMM41 Z:F81 B:F82 net0116:F83 vdd PSVTGP AD=0.11p AS=0.11p L=0.06u NRD=0.25 NRS=0.25 PD=0.2u PS=0.2u W=1.1u lpe=3 ngcon=1 po2act=1.50184 sca=5.21258 scb=0.00477169 scc=0.000389094
MMM42 Z:F87 B:F86 net0116:F85 vdd PSVTGP L=0.06u W=1.1u ad=0.11p as=0.11p lpe=3 ngcon=1 nrd=0.25 nrs=0.25 pd=0.2u po2act=1.5865 ps=0.2u sca=5.21234 scb=0.00477169 scc=0.000389094
MMM43 Z:F89 B:F90 net0116:F91 vdd PSVTGP AD=0.11p AS=0.11p L=0.06u NRD=0.25 NRS=0.25 PD=0.2u PS=0.2u W=1.1u lpe=3 ngcon=1 po2act=1.5865 sca=5.21234 scb=0.00477169 scc=0.000389094
MMM47 net0116:F101 C:F102 vdd vdd PSVTGP AD=0.11p AS=0.11p L=0.06u NRD=0.25 NRS=0.25 PD=0.2u PS=0.2u W=1.1u lpe=3 ngcon=1 po2act=1.07856 sca=5.21376 scb=0.00477169 scc=0.000389094
MMM49 net0116:F107 C:F106 vdd vdd PSVTGP L=0.06u W=1.1u ad=0.11p as=0.11p lpe=3 ngcon=1 nrd=0.25 nrs=0.25 pd=0.2u po2act=0.739912 ps=0.2u sca=5.21474 scb=0.00477169 scc=0.000389094
MMM52 Z:F65 A:F66 net0116:F67 vdd PSVTGP AD=0.11p AS=0.1838p L=0.06u NRD=0.25 NRS=0.25 PD=0.2u PS=1.45u W=1.1u lpe=3 ngcon=1 po2act=0.316529 sca=5.21602 scb=0.00477169 scc=0.000389094
MMM54 net0134:F23 A:F22 gnd gnd NSVTGP L=0.06u W=0.78u ad=0.078p as=0.078p lpe=3 ngcon=1 nrd=0.282051 nrs=0.282051 pd=0.2u po2act=0.729259 ps=0.2u sca=6.9861 scb=0.00671895 scc=0.000548722
MMM57 net0134:F25 A:F26 gnd gnd NSVTGP AD=0.078p AS=0.078p L=0.06u NRD=0.282051 NRS=0.282051 PD=0.2u PS=0.2u W=0.78u lpe=3 ngcon=1 po2act=1.04706 sca=6.98551 scb=0.00671895 scc=0.000548722
MMM58 Z:F29 B:F30 net0134:F31 gnd NSVTGP AD=0.078p AS=0.078p L=0.06u NRD=0.282051 NRS=0.282051 PD=0.2u PS=0.2u W=0.78u lpe=3 ngcon=1 po2act=1.26703 sca=6.98507 scb=0.00671895 scc=0.000548722
MMM61 Z:F35 B:F34 net0134:F33 gnd NSVTGP L=0.06u W=0.78u ad=0.078p as=0.078p lpe=3 ngcon=1 nrd=0.282051 nrs=0.282051 pd=0.2u po2act=1.38376 ps=0.2u sca=6.98478 scb=0.00671895 scc=0.000548722
MMM63 net0116:F109 C:F110 vdd vdd PSVTGP AD=0.1838p AS=0.11p L=0.06u NRD=0.25 NRS=0.25 PD=1.45u PS=0.2u W=1.1u lpe=3 ngcon=1 po2act=0.316529 sca=5.21602 scb=0.00477169 scc=0.000389094
MMM64 Z:F37 B:F38 net0134:F39 gnd NSVTGP AD=0.078p AS=0.078p L=0.06u NRD=0.282051 NRS=0.282051 PD=0.2u PS=0.2u W=0.78u lpe=3 ngcon=1 po2act=1.38473 sca=6.98464 scb=0.00671895 scc=0.000548722
MMM65 net0116:F99 C:F98 vdd vdd PSVTGP L=0.06u W=1.1u ad=0.11p as=0.11p lpe=3 ngcon=1 nrd=0.25 nrs=0.25 pd=0.2u po2act=1.33253 ps=0.2u sca=5.21304 scb=0.00477169 scc=0.000389094
MMM70 Z:F73 A:F74 net0116:F75 vdd PSVTGP AD=0.11p AS=0.11p L=0.06u NRD=0.25 NRS=0.25 PD=0.2u PS=0.2u W=1.1u lpe=3 ngcon=1 po2act=1.07856 sca=5.21376 scb=0.00477169 scc=0.000389094
MMM73 Z:F63 C:F62 gnd gnd NSVTGP L=0.06u W=0.63u ad=0.063p as=0.10625p lpe=3 ngcon=1 nrd=0.261905 nrs=0.261905 pd=0.2u po2act=0.319267 ps=0.98u sca=3.79214 scb=0.00291824 scc=5.79832e-05
MMM75 Z:F49 C:F50 gnd gnd NSVTGP AD=0.063p AS=0.0650106p L=0.06u NRD=0.261905 NRS=0.261905 PD=0.2u PS=0.245745u W=0.63u lpe=3 ngcon=1 po2act=1.33434 sca=3.79014 scb=0.00291824 scc=5.79832e-05
MMM76 Z:F55 C:F54 gnd gnd NSVTGP L=0.06u W=0.63u ad=0.063p as=0.063p lpe=3 ngcon=1 nrd=0.261905 nrs=0.261905 pd=0.2u po2act=1.08061 ps=0.2u sca=3.79058 scb=0.00291824 scc=5.79832e-05
MMM77 Z:F57 C:F58 gnd gnd NSVTGP AD=0.063p AS=0.063p L=0.06u NRD=0.261905 NRS=0.261905 PD=0.2u PS=0.2u W=0.63u lpe=3 ngcon=1 po2act=0.742285 sca=3.79118 scb=0.00291824 scc=5.79832e-05
MMM78 Z:F43 B:F42 net0134:F41 gnd NSVTGP L=0.06u W=0.78u ad=0.078p as=0.078p lpe=3 ngcon=1 nrd=0.282051 nrs=0.282051 pd=0.2u po2act=1.23321 ps=0.2u sca=6.98464 scb=0.00671895 scc=0.000548722
MMM79 net0134:F17 A:F18 gnd gnd NSVTGP AD=0.078p AS=0.131p L=0.06u NRD=0.282051 NRS=0.282051 PD=0.2u PS=1.13u W=0.78u lpe=3 ngcon=1 po2act=0.316266 sca=6.98706 scb=0.00671895 scc=0.000548722
R1 net0134:F17 net0134:F41 156.499
R10 net0134:F41 net0134:F47 0.001
R100 B:F90 B:F42 83.9431
R101 B:F90 B:F38 355.389
R102 B:F90 B:F34 1491.08
R103 B:F90 B:F30 4037.97
R104 B:F90 B:F4 188.135
R105 B:F4 B:F42 206.052
R106 B:F4 B:F38 190.537
R107 B:F4 B:F34 146.677
R108 B:F4 B:F30 397.212
R109 B:F38 B:F42 389.235
R11 Z Z:F6 0.001
R110 B:F38 B:F34 482.781
R111 B:F38 B:F30 1307.41
R112 B:F42 B:F34 1633.09
R113 B:F42 B:F30 4422.53
R114 B:F30 B:F34 347.744
R115 A A:F3 0.001
R116 A:F66 A:F74 1149.79
R117 A:F66 A:F70 332.417
R118 A:F66 A:F26 1259.29
R119 A:F66 A:F22 364.076
R12 Z:F57 Z:F63 0.001
R120 A:F66 A:F18 87.3444
R121 A:F66 A:F3 149.516
R122 A:F70 A:F74 332.358
R123 A:F70 A:F26 364.011
R124 A:F70 A:F22 105.24
R125 A:F70 A:F18 364.076
R126 A:F70 A:F3 149.809
R127 A:F22 A:F74 364.011
R128 A:F22 A:F26 398.679
R129 A:F22 A:F18 398.75
R13 Z:F57 Z:F49 2544.76
R130 A:F22 A:F3 164.076
R131 A:F74 A:F26 86.9923
R132 A:F74 A:F18 1259.29
R133 A:F74 A:F3 151.742
R134 A:F94 A:F46 69.6056
R135 A:F94 A:F3 111.902
R136 A:F3 A:F46 101.729
R137 A:F3 A:F26 166.194
R138 A:F3 A:F18 163.755
R139 A:F18 A:F26 1379.22
R14 Z:F57 Z:F37 2674.28
R140 vdd vdd 0.001
R141 vdd vdd 38.7875
R142 vdd vdd 38.657
R143 vdd vdd 0.001
R144 vdd vdd 2510.21
R145 vdd vdd 0.001
R146 vdd vdd 0.001
R147 vdd vdd 0.001
R148 vdd vdd 0.001
R149 vdd vdd 0.001
R15 Z:F57 Z:F29 2723.03
R150 vdd vdd 0.001
R151 vdd vdd 0.001
R152 vdd vdd 0.001
R153 vdd vdd 0.001
R154 vdd vdd 0.001
R155 vdd vdd 0.001
R156 vdd vdd 0.001
R157 vdd vdd 0.001
R158 vdd vdd 0.001
R159 vdd vdd 37.6252
R16 Z:F57 Z:F6 40.4834
R160 gnd gnd 0.001
R161 gnd gnd 0.0256454
R162 gnd gnd 37.6237
R163 gnd gnd 0.001
R164 gnd gnd 0.001
R165 gnd gnd 0.001
R166 gnd gnd 0.001
R167 gnd gnd 0.001
R168 gnd gnd 0.001
R169 gnd gnd 0.001
R17 Z:F71 Z:F95 2721.55
R170 gnd gnd 0.001
R171 gnd gnd 0.001
R172 gnd gnd 0.001
R173 gnd gnd 0.001
R174 C C:F5 0.001
R175 C:F5 C:F110 84.9896
R176 C:F5 C:F106 99.904
R177 C:F5 C:F102 271.528
R178 C:F5 C:F98 623.563
R179 C:F5 C:F62 214.497
R18 Z:F71 Z:F87 1351.53
R180 C:F5 C:F58 252.139
R181 C:F5 C:F54 685.285
R182 C:F5 C:F50 1573.76
R183 C:F50 C:F110 4279.54
R184 C:F50 C:F106 1464.75
R185 C:F50 C:F102 430.284
R186 C:F50 C:F98 140.542
R187 C:F50 C:F62 10800.7
R188 C:F50 C:F58 3696.75
R189 C:F50 C:F54 1085.95
R19 Z:F71 Z:F79 883.251
R190 C:F54 C:F110 1863.51
R191 C:F54 C:F106 637.82
R192 C:F54 C:F102 187.365
R193 C:F54 C:F98 430.284
R194 C:F54 C:F62 4703.14
R195 C:F54 C:F58 1609.74
R196 C:F58 C:F110 685.645
R197 C:F58 C:F106 234.675
R198 C:F58 C:F102 637.82
R199 C:F58 C:F98 1464.75
R2 net0134:F17 net0134:F33 153.86
R20 Z:F71 Z:F65 0.001
R200 C:F58 C:F62 1730.44
R201 C:F98 C:F110 1695.67
R202 C:F98 C:F106 580.373
R203 C:F98 C:F102 170.49
R204 C:F98 C:F62 4279.54
R205 C:F102 C:F110 738.371
R206 C:F102 C:F106 252.721
R207 C:F102 C:F62 1863.51
R208 C:F106 C:F110 271.67
R209 C:F106 C:F62 685.644
R21 Z:F71 Z:F6 43.6669
R210 C:F110 C:F62 190.731
R22 Z:F79 Z:F95 2664.75
R23 Z:F79 Z:F87 1622.41
R24 Z:F79 Z:F73 0.001
R25 Z:F79 Z:F6 42.7556
R26 Z:F87 Z:F95 2595.79
R27 Z:F87 Z:F81 0.001
R28 Z:F87 Z:F6 41.6491
R29 Z:F95 Z:F89 0.001
R3 net0134:F17 net0134:F25 148.798
R30 Z:F95 Z:F6 39.7845
R31 Z:F6 Z:F49 39.8084
R32 Z:F6 Z:F37 41.8345
R33 Z:F6 Z:F29 42.597
R34 Z:F29 Z:F49 2677.62
R35 Z:F29 Z:F37 1004.73
R36 Z:F29 Z:F35 0.001
R37 Z:F37 Z:F49 2629.69
R38 Z:F37 Z:F43 0.001
R39 Z:F49 Z:F55 0.001
R4 net0134:F17 net0134:F23 0.001
R40 gnd gnd 0.001
R41 gnd gnd 2359.52
R42 gnd gnd 0.001
R43 gnd gnd 2357.92
R44 gnd gnd 39.3802
R45 gnd gnd 39.5131
R46 gnd gnd 39.4862
R47 gnd gnd 37.5904
R48 gnd gnd 37.5
R49 gnd gnd 2365.88
R5 net0134:F25 net0134:F41 153.86
R50 gnd gnd 0.001
R51 gnd gnd 0.001
R52 net0116:F107 net0116:F109 239.634
R53 net0116:F107 net0116:F101 0.001
R54 net0116:F107 net0116:F99 252.2
R55 net0116:F107 net0116:F91 266.375
R56 net0116:F107 net0116:F83 277.892
R57 net0116:F107 net0116:F75 286.036
R58 net0116:F107 net0116:F67 290.258
R59 net0116:F109 net0116:F99 255.923
R6 net0134:F25 net0134:F33 151.265
R60 net0116:F109 net0116:F91 270.307
R61 net0116:F109 net0116:F83 281.994
R62 net0116:F109 net0116:F75 290.258
R63 net0116:F109 net0116:F67 294.543
R64 net0116:F99 net0116:F93 0.001
R65 net0116:F99 net0116:F91 258.79
R66 net0116:F99 net0116:F83 269.979
R67 net0116:F99 net0116:F75 277.892
R68 net0116:F99 net0116:F67 281.994
R69 net0116:F67 net0116:F91 270.307
R7 net0134:F25 net0134:F31 0.001
R70 net0116:F67 net0116:F83 255.923
R71 net0116:F67 net0116:F75 239.634
R72 net0116:F75 net0116:F91 266.375
R73 net0116:F75 net0116:F83 252.2
R74 net0116:F75 net0116:F69 0.001
R75 net0116:F83 net0116:F91 258.79
R76 net0116:F83 net0116:F77 0.001
R77 net0116:F91 net0116:F85 0.001
R78 B B:F4 0.001
R79 B:F86 B:F90 324.485
R8 net0134:F33 net0134:F41 148.798
R80 B:F86 B:F82 402.47
R81 B:F86 B:F78 1089.92
R82 B:F86 B:F42 355.389
R83 B:F86 B:F38 105.061
R84 B:F86 B:F34 440.8
R85 B:F86 B:F30 1193.72
R86 B:F86 B:F4 173.968
R87 B:F78 B:F90 3686.84
R88 B:F78 B:F82 289.896
R89 B:F78 B:F42 4037.97
R9 net0134:F33 net0134:F39 0.001
R90 B:F78 B:F38 1193.72
R91 B:F78 B:F34 317.505
R92 B:F78 B:F30 79.1708
R93 B:F78 B:F4 362.672
R94 B:F82 B:F90 1361.42
R95 B:F82 B:F42 1491.08
R96 B:F82 B:F38 440.8
R97 B:F82 B:F34 117.244
R98 B:F82 B:F30 317.506
R99 B:F82 B:F4 133.922
.ENDS HS65_GS_AOI12X23


.SUBCKT HS65_GS_AOI22X6 Z D C B A gnd gnd vdd vdd
*MOdified
*COMMENT Extracted with DK_cmos065lpgp_RF_7m4x0y2z_2V51V8@5.0.2@20070413.0 at 12:08 14 May 2007
Xld_D0 gnd vdd DNWPS AREA=2.92 PJ=6.92
MMM12 net0161:F33 A:F32 gnd gnd NSVTGP L=0.06u W=0.78u ad=0.0663p as=0.1755p lpe=3 ngcon=1 nrd=0.108974 nrs=0.410256 pd=0.17u po2act=0.365625 ps=1.23u sca=6.99217 scb=0.00671895 scc=0.000548722
MMM13 net0244:F47 A:F48 vdd vdd PSVTGP AD=0.22p AS=0.121p L=0.06u NRD=0.272727 NRS=0.295455 PD=1.5u PS=0.22u W=1.1u lpe=3 ngcon=1 po2act=0.333884 sca=5.22363 scb=0.00477169 scc=0.000389094
MMM15 net0244:F45 B:F44 vdd vdd PSVTGP L=0.06u W=1.1u ad=0.1155p as=0.121p lpe=3 ngcon=1 nrd=0.272727 nrs=0.295455 pd=0.21u po2act=0.579174 ps=0.22u sca=5.22318 scb=0.00477169 scc=0.000389094
MMM16 Z:F35 C:F36 net0244:F37 vdd PSVTGP AD=0.1155p AS=0.209p L=0.06u NRD=0.272727 NRS=0.272727 PD=0.21u PS=1.48u W=1.1u lpe=3 ngcon=1 po2act=0.320331 sca=5.22365 scb=0.00477169 scc=0.000389094
MMM17 Z:F41 D:F40 net0244:F39 vdd PSVTGP L=0.06u W=1.1u ad=0.1155p as=0.1155p lpe=3 ngcon=1 nrd=0.272727 nrs=0.272727 pd=0.21u po2act=0.570248 ps=0.21u sca=5.2232 scb=0.00477169 scc=0.000389094
MMM23 Z:F23 D:F24 net038:F25 gnd NSVTGP AD=0.0858p AS=0.08385p L=0.06u NRD=0.333333 NRS=0.137821 PD=0.22u PS=0.215u W=0.78u lpe=3 ngcon=1 po2act=0.569625 sca=6.99197 scb=0.00671895 scc=0.000548722
MMM24 net038:F19 C:F20 gnd gnd NSVTGP AD=0.08385p AS=0.1482p L=0.06u NRD=0.137821 NRS=0.307692 PD=0.215u PS=1.16u W=0.78u lpe=3 ngcon=1 po2act=0.319833 sca=6.99223 scb=0.00671895 scc=0.000548722
MMM8 Z:F29 B:F28 net0161:F27 gnd NSVTGP L=0.06u W=0.78u ad=0.0858p as=0.0663p lpe=3 ngcon=1 nrd=0.333333 nrs=0.108974 pd=0.22u po2act=0.564958 ps=0.17u sca=6.99197 scb=0.00671895 scc=0.000548722
R1 net0161:F27 net0161:F33 0.001
R10 Z Z:F7 0.001
R11 Z:F41 Z:F35 0.001
R12 Z:F41 Z:F7 37.6912
R13 Z:F7 Z:F23 39.7243
R14 Z:F23 Z:F29 0.001
R15 B B:F4 0.001
R16 B:F44 B:F28 72.3727
R17 B:F44 B:F4 102.122
R18 B:F4 B:F28 102.122
R19 D D:F6 0.001
R2 net038:F19 net038:F25 0.001
R20 D:F40 D:F24 74.264
R21 D:F40 D:F6 102.393
R22 D:F6 D:F24 102.393
R23 C C:F5 0.001
R24 C:F36 C:F5 100.244
R25 C:F36 C:F20 66.5044
R26 C:F5 C:F20 100.244
R27 net0244:F37 net0244:F47 114.83
R28 net0244:F37 net0244:F39 113.064
R29 net0244:F39 net0244:F47 113.096
R3 gnd gnd 0.001
R30 net0244:F39 net0244:F45 0.001
R31 vdd vdd 0.001
R32 vdd vdd 0.001
R33 vdd vdd 0.001
R34 vdd vdd 0.001
R35 vdd vdd 0.001
R36 vdd vdd 37.6252
R37 vdd vdd 0.001
R38 vdd vdd 37.7106
R39 vdd vdd 0.001
R4 gnd gnd 37.5373
R40 gnd gnd 0.001
R41 gnd gnd 0.001
R42 gnd gnd 0.001
R43 gnd gnd 0.001
R44 gnd gnd 0.0256454
R45 gnd gnd 37.6237
R5 gnd gnd 37.7737
R6 A A:F3 0.001
R7 A:F48 A:F32 67.4722
R8 A:F48 A:F3 118.295
R9 A:F3 A:F32 118.295
.ENDS HS65_GS_AOI22X6


.SUBCKT HS65_GS_AOI32X5 Z E D C B A gnd gnd vdd vdd
*COMMENT Extracted with DK_cmos065lpgp_RF_7m4x0y2z_2V51V8@5.0.2@20070413.0 at 12:09 14 May 2007
Xld_D0 gnd vdd DNWPS AREA=3.212 PJ=7.32
MMM10 net0161:F35 B:F34 net034:F33 gnd NSVTGP L=0.06u W=0.78u ad=0.07215p as=0.07215p lpe=3 ngcon=1 nrd=0.11859 nrs=0.11859 pd=0.185u po2act=0.623298 ps=0.185u sca=6.99117 scb=0.00671895 scc=0.000548722
MMM12 net034:F39 A:F38 gnd gnd NSVTGP L=0.06u W=0.78u ad=0.07215p as=0.1716p lpe=3 ngcon=1 nrd=0.11859 nrs=0.410256 pd=0.185u po2act=0.371348 ps=1.22u sca=6.99146 scb=0.00671895 scc=0.000548722
MMM13 net0244:F59 A:F58 vdd vdd PSVTGP L=0.06u W=1.1u ad=0.1155p as=0.198p lpe=3 ngcon=1 nrd=0.272727 nrs=0.272727 pd=0.21u po2act=0.314043 ps=1.46u sca=5.22262 scb=0.00477169 scc=0.000389094
MMM15 net0244:F51 C:F50 vdd vdd PSVTGP L=0.06u W=1.1u ad=0.11p as=0.11p lpe=3 ngcon=1 nrd=0.25 nrs=0.25 pd=0.2u po2act=0.704965 ps=0.2u sca=5.22184 scb=0.00477169 scc=0.000389094
MMM16 Z:F41 D:F42 net0244:F43 vdd PSVTGP AD=0.11p AS=0.198p L=0.06u NRD=0.25 NRS=0.272727 PD=0.2u PS=1.46u W=1.1u lpe=3 ngcon=1 po2act=0.314043 sca=5.22262 scb=0.00477169 scc=0.000389094
MMM22 net029:F21 D:F22 gnd gnd NSVTGP AD=0.06435p AS=0.1404p L=0.06u NRD=0.105769 NRS=0.307692 PD=0.165u PS=1.14u W=0.78u lpe=3 ngcon=1 po2act=0.314043 sca=6.99152 scb=0.00671895 scc=0.000548722
MMM23 Z:F25 E:F26 net029:F27 gnd NSVTGP AD=0.09165p AS=0.06435p L=0.06u NRD=0.384615 NRS=0.105769 PD=0.235u PS=0.165u W=0.78u lpe=3 ngcon=1 po2act=0.57734 sca=6.99122 scb=0.00671895 scc=0.000548722
MMM27 Z:F47 E:F46 net0244:F45 vdd PSVTGP L=0.06u W=1.1u ad=0.11p as=0.11p lpe=3 ngcon=1 nrd=0.25 nrs=0.25 pd=0.2u po2act=0.60539 ps=0.2u sca=5.22203 scb=0.00477169 scc=0.000389094
MMM28 net0244:F53 B:F54 vdd vdd PSVTGP AD=0.1155p AS=0.11p L=0.06u NRD=0.272727 NRS=0.25 PD=0.21u PS=0.2u W=1.1u lpe=3 ngcon=1 po2act=0.612766 sca=5.22202 scb=0.00477169 scc=0.000389094
MMM8 Z:F31 C:F30 net0161:F29 gnd NSVTGP L=0.06u W=0.78u ad=0.09165p as=0.07215p lpe=3 ngcon=1 nrd=0.358974 nrs=0.11859 pd=0.235u po2act=0.704965 ps=0.185u sca=6.99107 scb=0.00671895 scc=0.000548722
R1 net034:F33 net034:F39 0.001
R10 A:F3 A:F38 99.0743
R11 B B:F4 0.001
R12 B:F54 B:F4 103.037
R13 B:F54 B:F34 76.3586
R14 B:F4 B:F34 103.037
R15 Z Z:F8 0.001
R16 Z:F47 Z:F41 0.001
R17 Z:F47 Z:F8 38.2626
R18 Z:F8 Z:F25 39.7965
R19 Z:F25 Z:F31 0.001
R2 net0161:F29 net0161:F35 0.001
R20 C C:F5 0.001
R21 C:F50 C:F5 103.711
R22 C:F50 C:F30 77.4419
R23 C:F5 C:F30 103.711
R24 E E:F7 0.001
R25 E:F46 E:F7 103.243
R26 E:F46 E:F26 76.3023
R27 E:F7 E:F26 103.243
R28 D D:F6 0.001
R29 D:F42 D:F6 101.771
R3 net029:F21 net029:F27 0.001
R30 D:F42 D:F22 70.7482
R31 D:F6 D:F22 101.771
R32 net0244:F43 net0244:F53 115.233
R33 net0244:F43 net0244:F45 113.18
R34 net0244:F45 net0244:F53 113.18
R35 net0244:F45 net0244:F51 0.001
R36 net0244:F53 net0244:F59 0.001
R37 vdd vdd 0.001
R38 vdd vdd 0.001
R39 vdd vdd 0.001
R4 gnd gnd 0.001
R40 vdd vdd 0.001
R41 vdd vdd 0.001
R42 vdd vdd 0.001
R43 vdd vdd 37.6252
R44 vdd vdd 0.001
R45 vdd vdd 37.8301
R46 vdd vdd 37.901
R47 vdd vdd 0.001
R48 gnd gnd 0.001
R49 gnd gnd 0.001
R5 gnd gnd 37.5
R50 gnd gnd 0.001
R51 gnd gnd 0.001
R52 gnd gnd 0.001
R53 gnd gnd 0.0256454
R54 gnd gnd 37.6237
R6 gnd gnd 37.8086
R7 A A:F3 0.001
R8 A:F58 A:F38 63.1849
R9 A:F58 A:F3 99.0743
.ENDS HS65_GS_AOI32X5


.SUBCKT HS65_GS_BFX284 Z A gnd gnd vdd vdd

*Modified subckt

*COMMENT Extracted with DK_cmos065lpgp_RF_7m4x0y2z_2V51V8@5.0.2@20070413.0 at 12:10 14 May 2007
Xld_D0 gnd vdd DNWPS AREA=17.812 PJ=27.32
MMM0 net0513:F142 A:F143 gnd gnd NSVTGP AD=0.0819p AS=0.078p L=0.06u NRD=0.153846 NRS=0.141026 PD=0.21u PS=0.2u W=0.78u lpe=3 ngcon=1 po2act=4.34057 sca=6.97812 scb=0.00671895 scc=0.000548722
MMM1 net0513:F148 A:F147 gnd gnd NSVTGP L=0.06u W=0.78u ad=0.0819p as=0.0819p lpe=3 ngcon=1 nrd=0.153846 nrs=0.153846 pd=0.21u po2act=4.0637 ps=0.21u sca=6.97868 scb=0.00671895 scc=0.000548722
MMM10 net0513:F182 A:F183 gnd gnd NSVTGP AD=0.1521p AS=0.0897p L=0.06u NRD=0.179487 NRS=0.179487 PD=1.17u PS=0.23u W=0.78u lpe=3 ngcon=1 po2act=0.38254 sca=6.98696 scb=0.00671895 scc=0.000548722
MMM11 net0513:F314 A:F315 vdd vdd PSVTGP AD=0.1155p AS=0.11p L=0.06u NRD=0.136364 NRS=0.125 PD=0.21u PS=0.2u W=1.1u lpe=3 ngcon=1 po2act=4.34057 sca=5.20084 scb=0.00477169 scc=0.000389094
MMM12 net0513:F320 A:F319 vdd vdd PSVTGP L=0.06u W=1.1u ad=0.1155p as=0.1155p lpe=3 ngcon=1 nrd=0.136364 nrs=0.136364 pd=0.21u po2act=4.0637 ps=0.21u sca=5.20161 scb=0.00477169 scc=0.000389094
MMM13 net0513:F322 A:F323 vdd vdd PSVTGP AD=0.1155p AS=0.1155p L=0.06u NRD=0.136364 NRS=0.136364 PD=0.21u PS=0.21u W=1.1u lpe=3 ngcon=1 po2act=3.76128 sca=5.20246 scb=0.00477169 scc=0.000389094
MMM14 net0513:F328 A:F327 vdd vdd PSVTGP L=0.06u W=1.1u ad=0.1155p as=0.1155p lpe=3 ngcon=1 nrd=0.136364 nrs=0.136364 pd=0.21u po2act=3.43331 ps=0.21u sca=5.20339 scb=0.00477169 scc=0.000389094
MMM15 net0513:F330 A:F331 vdd vdd PSVTGP AD=0.1155p AS=0.1155p L=0.06u NRD=0.136364 NRS=0.136364 PD=0.21u PS=0.21u W=1.1u lpe=3 ngcon=1 po2act=3.07978 sca=5.20442 scb=0.00477169 scc=0.000389094
MMM16 net0513:F336 A:F335 vdd vdd PSVTGP L=0.06u W=1.1u ad=0.1155p as=0.1155p lpe=3 ngcon=1 nrd=0.136364 nrs=0.136364 pd=0.21u po2act=2.70069 ps=0.21u sca=5.20557 scb=0.00477169 scc=0.000389094
MMM17 net0513:F338 A:F339 vdd vdd PSVTGP AD=0.1155p AS=0.1155p L=0.06u NRD=0.136364 NRS=0.136364 PD=0.21u PS=0.21u W=1.1u lpe=3 ngcon=1 po2act=2.29305 sca=5.20683 scb=0.00477169 scc=0.000389094
MMM18 net0513:F344 A:F343 vdd vdd PSVTGP L=0.06u W=1.1u ad=0.1155p as=0.1155p lpe=3 ngcon=1 nrd=0.136364 nrs=0.136364 pd=0.21u po2act=1.85941 ps=0.21u sca=5.20825 scb=0.00477169 scc=0.000389094
MMM19 net0513:F346 A:F347 vdd vdd PSVTGP AD=0.1155p AS=0.1155p L=0.06u NRD=0.136364 NRS=0.136364 PD=0.21u PS=0.21u W=1.1u lpe=3 ngcon=1 po2act=1.404 sca=5.20983 scb=0.00477169 scc=0.000389094
MMM2 net0513:F150 A:F151 gnd gnd NSVTGP AD=0.0819p AS=0.0819p L=0.06u NRD=0.153846 NRS=0.153846 PD=0.21u PS=0.21u W=0.78u lpe=3 ngcon=1 po2act=3.76128 sca=6.97929 scb=0.00671895 scc=0.000548722
MMM20 net0513:F352 A:F351 vdd vdd PSVTGP L=0.06u W=1.1u ad=0.1155p as=0.1265p lpe=3 ngcon=1 nrd=0.136364 nrs=0.159091 pd=0.21u po2act=0.925131 ps=0.23u sca=5.21162 scb=0.00477169 scc=0.000389094
MMM21 net0513:F354 A:F355 vdd vdd PSVTGP AD=0.2145p AS=0.1265p L=0.06u NRD=0.159091 NRS=0.159091 PD=1.49u PS=0.23u W=1.1u lpe=3 ngcon=1 po2act=0.38254 sca=5.2138 scb=0.00477169 scc=0.000389094
MMM3 net0513:F156 A:F155 gnd gnd NSVTGP L=0.06u W=0.78u ad=0.0819p as=0.0819p lpe=3 ngcon=1 nrd=0.153846 nrs=0.153846 pd=0.21u po2act=3.43331 ps=0.21u sca=6.97995 scb=0.00671895 scc=0.000548722
MMM4 net0513:F158 A:F159 gnd gnd NSVTGP AD=0.0819p AS=0.0819p L=0.06u NRD=0.153846 NRS=0.153846 PD=0.21u PS=0.21u W=0.78u lpe=3 ngcon=1 po2act=3.07978 sca=6.98068 scb=0.00671895 scc=0.000548722
MMM5 net0513:F164 A:F163 gnd gnd NSVTGP L=0.06u W=0.78u ad=0.0819p as=0.0819p lpe=3 ngcon=1 nrd=0.153846 nrs=0.153846 pd=0.21u po2act=2.70069 ps=0.21u sca=6.98147 scb=0.00671895 scc=0.000548722
MMM6 net0513:F166 A:F167 gnd gnd NSVTGP AD=0.0819p AS=0.0819p L=0.06u NRD=0.153846 NRS=0.153846 PD=0.21u PS=0.21u W=0.78u lpe=3 ngcon=1 po2act=2.29305 sca=6.98235 scb=0.00671895 scc=0.000548722
MMM7 net0513:F172 A:F171 gnd gnd NSVTGP L=0.06u W=0.78u ad=0.0819p as=0.0819p lpe=3 ngcon=1 nrd=0.153846 nrs=0.153846 pd=0.21u po2act=1.85941 ps=0.21u sca=6.98331 scb=0.00671895 scc=0.000548722
MMM8 net0513:F174 A:F175 gnd gnd NSVTGP AD=0.0819p AS=0.0819p L=0.06u NRD=0.153846 NRS=0.153846 PD=0.21u PS=0.21u W=0.78u lpe=3 ngcon=1 po2act=1.404 sca=6.98437 scb=0.00671895 scc=0.000548722
MMM9 net0513:F180 A:F179 gnd gnd NSVTGP L=0.06u W=0.78u ad=0.0819p as=0.0897p lpe=3 ngcon=1 nrd=0.153846 nrs=0.179487 pd=0.21u po2act=0.925131 ps=0.23u sca=6.98554 scb=0.00671895 scc=0.000548722
MMMI0 Z:F140 net0513:F139 gnd gnd NSVTGP L=0.06u W=0.78u ad=0.078p as=0.078p lpe=3 ngcon=1 nrd=0.141026 nrs=0.141026 pd=0.2u po2act=4.58302 ps=0.2u sca=6.97808 scb=0.00671895 scc=0.000548722
MMMI1 Z:F134 net0513:F135 gnd gnd NSVTGP AD=0.078p AS=0.078p L=0.06u NRD=0.141026 NRS=0.141026 PD=0.2u PS=0.2u W=0.78u lpe=3 ngcon=1 po2act=4.80177 sca=6.97808 scb=0.00671895 scc=0.000548722
MMMI10 Z:F100 net0513:F99 gnd gnd NSVTGP L=0.06u W=0.78u ad=0.078p as=0.078p lpe=3 ngcon=1 nrd=0.141026 nrs=0.141026 pd=0.2u po2act=5.70414 ps=0.2u sca=6.97808 scb=0.00671895 scc=0.000548722
MMMI11 Z:F94 net0513:F95 gnd gnd NSVTGP AD=0.078p AS=0.078p L=0.06u NRD=0.141026 NRS=0.141026 PD=0.2u PS=0.2u W=0.78u lpe=3 ngcon=1 po2act=5.68591 sca=6.97808 scb=0.00671895 scc=0.000548722
MMMI12 Z:F92 net0513:F91 gnd gnd NSVTGP L=0.06u W=0.78u ad=0.078p as=0.078p lpe=3 ngcon=1 nrd=0.141026 nrs=0.141026 pd=0.2u po2act=5.64398 ps=0.2u sca=6.97808 scb=0.00671895 scc=0.000548722
MMMI13 Z:F86 net0513:F87 gnd gnd NSVTGP AD=0.078p AS=0.078p L=0.06u NRD=0.141026 NRS=0.141026 PD=0.2u PS=0.2u W=0.78u lpe=3 ngcon=1 po2act=5.57836 sca=6.97808 scb=0.00671895 scc=0.000548722
MMMI14 Z:F84 net0513:F83 gnd gnd NSVTGP L=0.06u W=0.78u ad=0.078p as=0.078p lpe=3 ngcon=1 nrd=0.141026 nrs=0.141026 pd=0.2u po2act=5.48903 ps=0.2u sca=6.97808 scb=0.00671895 scc=0.000548722
MMMI15 Z:F78 net0513:F79 gnd gnd NSVTGP AD=0.078p AS=0.078p L=0.06u NRD=0.141026 NRS=0.141026 PD=0.2u PS=0.2u W=0.78u lpe=3 ngcon=1 po2act=5.37601 sca=6.97808 scb=0.00671895 scc=0.000548722
MMMI16 Z:F76 net0513:F75 gnd gnd NSVTGP L=0.06u W=0.78u ad=0.078p as=0.078p lpe=3 ngcon=1 nrd=0.141026 nrs=0.141026 pd=0.2u po2act=5.23929 ps=0.2u sca=6.97808 scb=0.00671895 scc=0.000548722
MMMI17 Z:F70 net0513:F71 gnd gnd NSVTGP AD=0.078p AS=0.078p L=0.06u NRD=0.141026 NRS=0.141026 PD=0.2u PS=0.2u W=0.78u lpe=3 ngcon=1 po2act=5.07887 sca=6.97808 scb=0.00671895 scc=0.000548722
MMMI18 Z:F68 net0513:F67 gnd gnd NSVTGP L=0.06u W=0.78u ad=0.078p as=0.078p lpe=3 ngcon=1 nrd=0.141026 nrs=0.141026 pd=0.2u po2act=4.89475 ps=0.2u sca=6.97808 scb=0.00671895 scc=0.000548722
MMMI19 Z:F62 net0513:F63 gnd gnd NSVTGP AD=0.078p AS=0.078p L=0.06u NRD=0.141026 NRS=0.141026 PD=0.2u PS=0.2u W=0.78u lpe=3 ngcon=1 po2act=4.68693 sca=6.97808 scb=0.00671895 scc=0.000548722
MMMI2 Z:F132 net0513:F131 gnd gnd NSVTGP L=0.06u W=0.78u ad=0.078p as=0.078p lpe=3 ngcon=1 nrd=0.141026 nrs=0.141026 pd=0.2u po2act=4.99683 ps=0.2u sca=6.97808 scb=0.00671895 scc=0.000548722
MMMI20 Z:F60 net0513:F59 gnd gnd NSVTGP L=0.06u W=0.78u ad=0.078p as=0.078p lpe=3 ngcon=1 nrd=0.141026 nrs=0.141026 pd=0.2u po2act=4.45541 ps=0.2u sca=6.97808 scb=0.00671895 scc=0.000548722
MMMI21 Z:F54 net0513:F55 gnd gnd NSVTGP AD=0.078p AS=0.078p L=0.06u NRD=0.141026 NRS=0.141026 PD=0.2u PS=0.2u W=0.78u lpe=3 ngcon=1 po2act=4.2002 sca=6.9784 scb=0.00671895 scc=0.000548722
MMMI22 Z:F52 net0513:F51 gnd gnd NSVTGP L=0.06u W=0.78u ad=0.078p as=0.078p lpe=3 ngcon=1 nrd=0.141026 nrs=0.141026 pd=0.2u po2act=3.92128 ps=0.2u sca=6.97897 scb=0.00671895 scc=0.000548722
MMMI23 Z:F46 net0513:F47 gnd gnd NSVTGP AD=0.078p AS=0.078p L=0.06u NRD=0.141026 NRS=0.141026 PD=0.2u PS=0.2u W=0.78u lpe=3 ngcon=1 po2act=3.61867 sca=6.97958 scb=0.00671895 scc=0.000548722
MMMI24 Z:F44 net0513:F43 gnd gnd NSVTGP L=0.06u W=0.78u ad=0.078p as=0.078p lpe=3 ngcon=1 nrd=0.141026 nrs=0.141026 pd=0.2u po2act=3.29236 ps=0.2u sca=6.98024 scb=0.00671895 scc=0.000548722
MMMI25 Z:F38 net0513:F39 gnd gnd NSVTGP AD=0.078p AS=0.078p L=0.06u NRD=0.141026 NRS=0.141026 PD=0.2u PS=0.2u W=0.78u lpe=3 ngcon=1 po2act=2.94235 sca=6.98096 scb=0.00671895 scc=0.000548722